2024_89_CemigReconfigurationCases/1_AlimsCemig/MAGC513/MAGC513CargaBT_Dez.dss
new load.3003129408M1 bus1=RML1050434860.1.2.0,Phases=2,kv=0.24,kW=0.98236,pf=0.92,Vminpu=0.92,Vmaxpu=1.5,model=1,daily=RUR1_22,status=variable
new load.3003129412M1 bus1=RML1050435091.1.2.0,Phases=2,kv=0.24,kW=4.70372,pf=0.92,Vminpu=0.92,Vmaxpu=1.5,model=1,daily=RUR4_18,status=variable
new load.3003129414M1 bus1=RML1050434888.1.2.0,Phases=2,kv=0.24,kW=0.76242,pf=0.92,Vminpu=0.92,Vmaxpu=1.5,model=1,daily=RUR2_21,status=variable
new load.3003129415M1 bus1=RML1050434937.1.2.0,Phases=2,kv=0.24,kW=1.74604,pf=0.92,Vminpu=0.92,Vmaxpu=1.5,model=1,daily=RUR4_18,status=variable
new load.3003129416M1 bus1=RML1050434979.1.2.0,Phases=2,kv=0.24,kW=1.52028,pf=0.92,Vminpu=0.92,Vmaxpu=1.5,model=1,daily=RUR4_18,status=variable
new load.3003129418M1 bus1=RML1050434965.1.2.0,Phases=2,kv=0.24,kW=0.38746,pf=0.92,Vminpu=0.92,Vmaxpu=1.5,model=1,daily=RUR2_21,status=variable
new load.3003129420M1 bus1=RML1050435126.1.0,Phases=1,kv=0.12,kW=0.4955,pf=0.92,Vminpu=0.92,Vmaxpu=1.5,model=1,daily=RUR1_23,status=variable
new load.3003129422M1 bus1=RML1054216379.2.0,Phases=1,kv=0.12,kW=0.37014,pf=0.92,Vminpu=0.92,Vmaxpu=1.5,model=1,daily=RUR1_23,status=variable
new load.3003129423M1 bus1=RML1054218815.1.0,Phases=1,kv=0.12,kW=0.1791,pf=0.92,Vminpu=0.92,Vmaxpu=1.5,model=1,daily=RUR1_23,status=variable
new load.3003129425M1 bus1=RML1050434902.1.0,Phases=1,kv=0.12,kW=0.4358,pf=0.92,Vminpu=0.92,Vmaxpu=1.5,model=1,daily=RUR1_23,status=variable
new load.3003129426M1 bus1=RML1054216190.1.0,Phases=1,kv=0.12,kW=0.94988,pf=0.92,Vminpu=0.92,Vmaxpu=1.5,model=1,daily=RUR2_21,status=variable
new load.3007264772M1 bus1=RML1053842719.1.2.3.0,Phases=3,kv=0.22,kW=1.354,pf=0.92,Vminpu=0.92,Vmaxpu=1.5,model=1,daily=RUR2_18,status=variable
new load.3007264787M1 bus1=RML1053842726.1.2.3.0,Phases=3,kv=0.22,kW=10.67108,pf=0.92,Vminpu=0.92,Vmaxpu=1.5,model=1,daily=RUR4_12,status=variable
new load.3007314339M1 bus1=RML1053861493.1.2.3.0,Phases=3,kv=0.22,kW=0.6091,pf=0.92,Vminpu=0.92,Vmaxpu=1.5,model=1,daily=RUR3_16,status=variable
new load.3007404367M1 bus1=RML1053830252.1.2.3.0,Phases=3,kv=0.22,kW=2.18768,pf=0.92,Vminpu=0.92,Vmaxpu=1.5,model=1,daily=RES5_15,status=variable
new load.3007484003M1 bus1=RML1053977168.1.2.3.0,Phases=3,kv=0.22,kW=0.72302,pf=0.92,Vminpu=0.92,Vmaxpu=1.5,model=1,daily=RUR3_22,status=variable
new load.3007723239M1 bus1=RML1054295871.1.2.0,Phases=2,kv=0.24,kW=1.75368,pf=0.92,Vminpu=0.92,Vmaxpu=1.5,model=1,daily=RUR4_1,status=variable
new load.3010250728M1 bus1=RML1054564734.1.2.3.0,Phases=3,kv=0.22,kW=2.46422,pf=0.92,Vminpu=0.92,Vmaxpu=1.5,model=1,daily=RUR4_2,status=variable
new load.3010250870M1 bus1=RML1054564741.1.2.0,Phases=2,kv=0.24,kW=1.61934,pf=0.92,Vminpu=0.92,Vmaxpu=1.5,model=1,daily=RUR3_2,status=variable
new load.3010250875M1 bus1=RML1054564748.1.2.0,Phases=2,kv=0.24,kW=1.07434,pf=0.92,Vminpu=0.92,Vmaxpu=1.5,model=1,daily=RUR2_3,status=variable
new load.3004906715M1 bus1=RML1050438906.1.2.0,Phases=2,kv=0.24,kW=0.9439,pf=0.92,Vminpu=0.92,Vmaxpu=1.5,model=1,daily=COM1_12,status=variable
new load.3007287755M1 bus1=RML1054158979.1.2.3.0,Phases=3,kv=0.22,kW=20.3058,pf=0.92,Vminpu=0.92,Vmaxpu=1.5,model=1,daily=RUR4_14,status=variable
new load.3007414118M1 bus1=RML1060090331.1.2.3.0,Phases=3,kv=0.22,kW=3.91786,pf=0.92,Vminpu=0.92,Vmaxpu=1.5,model=1,daily=RUR4_18,status=variable
new load.3007654606M1 bus1=RML1054184389.1.2.0,Phases=2,kv=0.24,kW=6.5495,pf=0.92,Vminpu=0.92,Vmaxpu=1.5,model=1,daily=RUR4_23,status=variable
new load.3010049629M1 bus1=RML1054731257.1.2.3.0,Phases=3,kv=0.22,kW=0.33506,pf=0.92,Vminpu=0.92,Vmaxpu=1.5,model=1,daily=RUR4_1,status=variable
new load.3010609270M1 bus1=RML1054774503.2.0,Phases=1,kv=0.127,kW=0.45376,pf=0.92,Vminpu=0.92,Vmaxpu=1.5,model=1,daily=COM1_15,status=variable
new load.3010753191M1 bus1=RML1054790869.1.2.0,Phases=2,kv=0.24,kW=0.11578,pf=0.92,Vminpu=0.92,Vmaxpu=1.5,model=1,daily=RUR1_11,status=variable
new load.3010753219M1 bus1=RML1054790932.1.2.0,Phases=2,kv=0.24,kW=0.11578,pf=0.92,Vminpu=0.92,Vmaxpu=1.5,model=1,daily=RUR1_11,status=variable
new load.3010753220M1 bus1=RML1054790967.1.2.0,Phases=2,kv=0.24,kW=0.13622,pf=0.92,Vminpu=0.92,Vmaxpu=1.5,model=1,daily=RUR1_11,status=variable
new load.3010753221M1 bus1=RML1054791037.1.2.0,Phases=2,kv=0.24,kW=0.13622,pf=0.92,Vminpu=0.92,Vmaxpu=1.5,model=1,daily=RUR1_11,status=variable
new load.3010753222M1 bus1=RML1054790939.1.2.0,Phases=2,kv=0.24,kW=0.1294,pf=0.92,Vminpu=0.92,Vmaxpu=1.5,model=1,daily=RUR1_11,status=variable
new load.3010753223M1 bus1=RML1054790974.1.2.0,Phases=2,kv=0.24,kW=0.10896,pf=0.92,Vminpu=0.92,Vmaxpu=1.5,model=1,daily=RUR1_11,status=variable
new load.3010753225M1 bus1=RML1054791009.1.2.0,Phases=2,kv=0.24,kW=0.14984,pf=0.92,Vminpu=0.92,Vmaxpu=1.5,model=1,daily=RUR1_11,status=variable
new load.3010753226M1 bus1=RML1054790946.1.2.0,Phases=2,kv=0.24,kW=0.10896,pf=0.92,Vminpu=0.92,Vmaxpu=1.5,model=1,daily=RUR1_11,status=variable
new load.3010753228M1 bus1=RML1054790981.1.2.0,Phases=2,kv=0.24,kW=0.11578,pf=0.92,Vminpu=0.92,Vmaxpu=1.5,model=1,daily=RUR1_11,status=variable
new load.3010753229M1 bus1=RML1054791016.1.2.0,Phases=2,kv=0.24,kW=0.12258,pf=0.92,Vminpu=0.92,Vmaxpu=1.5,model=1,daily=RUR1_11,status=variable
new load.3010753241M1 bus1=RML1054790953.1.2.0,Phases=2,kv=0.24,kW=0.10896,pf=0.92,Vminpu=0.92,Vmaxpu=1.5,model=1,daily=RUR1_11,status=variable
new load.3010753242M1 bus1=RML1054790988.1.2.0,Phases=2,kv=0.24,kW=0.11578,pf=0.92,Vminpu=0.92,Vmaxpu=1.5,model=1,daily=RUR1_11,status=variable
new load.3010753243M1 bus1=RML1054791023.1.2.0,Phases=2,kv=0.24,kW=0.14984,pf=0.92,Vminpu=0.92,Vmaxpu=1.5,model=1,daily=RUR1_11,status=variable
new load.3010753244M1 bus1=RML1054790960.1.2.0,Phases=2,kv=0.24,kW=0.11578,pf=0.92,Vminpu=0.92,Vmaxpu=1.5,model=1,daily=RUR1_11,status=variable
new load.3010753246M1 bus1=RML1054791030.1.2.0,Phases=2,kv=0.24,kW=0.1294,pf=0.92,Vminpu=0.92,Vmaxpu=1.5,model=1,daily=RUR1_11,status=variable
new load.3010753998M1 bus1=RML1054791002.1.2.0,Phases=2,kv=0.24,kW=0.1294,pf=0.92,Vminpu=0.92,Vmaxpu=1.5,model=1,daily=RUR1_11,status=variable
new load.3010801020M1 bus1=RML1054810028.1.2.3.0,Phases=3,kv=0.22,kW=7.09294,pf=0.92,Vminpu=0.92,Vmaxpu=1.5,model=1,daily=RUR4_11,status=variable
new load.3010251475M1 bus1=RML1054567345.1.2.0,Phases=2,kv=0.24,kW=4.7492,pf=0.92,Vminpu=0.92,Vmaxpu=1.5,model=1,daily=RUR4_2,status=variable
new load.3010954500M1 bus1=RML1054974066.3.0,Phases=1,kv=0.127,kW=0.06296,pf=0.92,Vminpu=0.92,Vmaxpu=1.5,model=1,daily=RES1_18,status=variable
new load.3011229362M1 bus1=RML1060049747.1.2.0,Phases=2,kv=0.24,kW=0.08306,pf=0.92,Vminpu=0.92,Vmaxpu=1.5,model=1,daily=RUR2_2,status=variable
new load.IP1146200M1 bus1=BBT2680229.1.2.0,Phases=2,kv=0.22,kW=0.08064,pf=0.92,Vminpu=0.92,Vmaxpu=1.5,model=1,daily=IP,status=variable
new load.IP1146207M1 bus1=BBT2680222.1.3.0,Phases=2,kv=0.22,kW=0.08064,pf=0.92,Vminpu=0.92,Vmaxpu=1.5,model=1,daily=IP,status=variable
new load.IP1146214M1 bus1=BBT2680215.2.3.0,Phases=2,kv=0.22,kW=0.08064,pf=0.92,Vminpu=0.92,Vmaxpu=1.5,model=1,daily=IP,status=variable
new load.IP1146221M1 bus1=BBT2680208.1.3.0,Phases=2,kv=0.22,kW=0.08064,pf=0.92,Vminpu=0.92,Vmaxpu=1.5,model=1,daily=IP,status=variable
new load.IP1146228M1 bus1=BBT2680208.1.3.0,Phases=2,kv=0.22,kW=0.08064,pf=0.92,Vminpu=0.92,Vmaxpu=1.5,model=1,daily=IP,status=variable
new load.IP1146235M1 bus1=BBT2680201.2.3.0,Phases=2,kv=0.22,kW=0.08064,pf=0.92,Vminpu=0.92,Vmaxpu=1.5,model=1,daily=IP,status=variable
new load.IP1146242M1 bus1=BBT2680194.1.2.0,Phases=2,kv=0.22,kW=0.08064,pf=0.92,Vminpu=0.92,Vmaxpu=1.5,model=1,daily=IP,status=variable
new load.IP1146249M1 bus1=BBT2680194.1.2.0,Phases=2,kv=0.22,kW=0.08064,pf=0.92,Vminpu=0.92,Vmaxpu=1.5,model=1,daily=IP,status=variable
new load.IP1146256M1 bus1=BBT2680138.1.2.0,Phases=2,kv=0.22,kW=0.08064,pf=0.92,Vminpu=0.92,Vmaxpu=1.5,model=1,daily=IP,status=variable
new load.IP1146263M1 bus1=BBT2680145.1.3.0,Phases=2,kv=0.22,kW=0.08064,pf=0.92,Vminpu=0.92,Vmaxpu=1.5,model=1,daily=IP,status=variable
new load.IP1146270M1 bus1=BBT2680152.2.3.0,Phases=2,kv=0.22,kW=0.08064,pf=0.92,Vminpu=0.92,Vmaxpu=1.5,model=1,daily=IP,status=variable
new load.IP1146277M1 bus1=BBT2680166.1.3.0,Phases=2,kv=0.22,kW=0.08064,pf=0.92,Vminpu=0.92,Vmaxpu=1.5,model=1,daily=IP,status=variable
new load.IP1146284M1 bus1=BBT2680159.1.3.0,Phases=2,kv=0.22,kW=0.08064,pf=0.92,Vminpu=0.92,Vmaxpu=1.5,model=1,daily=IP,status=variable
new load.IP1146291M1 bus1=BBT2680159.1.3.0,Phases=2,kv=0.22,kW=0.08064,pf=0.92,Vminpu=0.92,Vmaxpu=1.5,model=1,daily=IP,status=variable
new load.IP1146298M1 bus1=BBT2680173.1.3.0,Phases=2,kv=0.22,kW=0.08064,pf=0.92,Vminpu=0.92,Vmaxpu=1.5,model=1,daily=IP,status=variable
new load.IP1146305M1 bus1=BBT2680180.1.3.0,Phases=2,kv=0.22,kW=0.08064,pf=0.92,Vminpu=0.92,Vmaxpu=1.5,model=1,daily=IP,status=variable
new load.IP1146312M1 bus1=BBT2680187.1.2.0,Phases=2,kv=0.22,kW=0.08064,pf=0.92,Vminpu=0.92,Vmaxpu=1.5,model=1,daily=IP,status=variable
new load.IP1146319M1 bus1=BBT2680103.2.3.0,Phases=2,kv=0.22,kW=0.08064,pf=0.92,Vminpu=0.92,Vmaxpu=1.5,model=1,daily=IP,status=variable
new load.IP1146326M1 bus1=BBT2680096.1.2.0,Phases=2,kv=0.22,kW=0.08064,pf=0.92,Vminpu=0.92,Vmaxpu=1.5,model=1,daily=IP,status=variable
new load.IP1146333M1 bus1=BBT2680089.2.3.0,Phases=2,kv=0.22,kW=0.08064,pf=0.92,Vminpu=0.92,Vmaxpu=1.5,model=1,daily=IP,status=variable
new load.IP1146340M1 bus1=BBT2680082.1.2.0,Phases=2,kv=0.22,kW=0.08064,pf=0.92,Vminpu=0.92,Vmaxpu=1.5,model=1,daily=IP,status=variable
new load.IP1146347M1 bus1=BBT2680075.1.3.0,Phases=2,kv=0.22,kW=0.08064,pf=0.92,Vminpu=0.92,Vmaxpu=1.5,model=1,daily=IP,status=variable
new load.IP1146354M1 bus1=BBT2680075.1.3.0,Phases=2,kv=0.22,kW=0.08064,pf=0.92,Vminpu=0.92,Vmaxpu=1.5,model=1,daily=IP,status=variable
new load.IP1146361M1 bus1=BBT2680068.2.3.0,Phases=2,kv=0.22,kW=0.08064,pf=0.92,Vminpu=0.92,Vmaxpu=1.5,model=1,daily=IP,status=variable
new load.IP1146368M1 bus1=BBT2679935.1.2.0,Phases=2,kv=0.22,kW=0.08064,pf=0.92,Vminpu=0.92,Vmaxpu=1.5,model=1,daily=IP,status=variable
new load.IP1146375M1 bus1=BBT2679942.1.3.0,Phases=2,kv=0.22,kW=0.08064,pf=0.92,Vminpu=0.92,Vmaxpu=1.5,model=1,daily=IP,status=variable
new load.IP1146382M1 bus1=BBT2679949.1.3.0,Phases=2,kv=0.22,kW=0.08064,pf=0.92,Vminpu=0.92,Vmaxpu=1.5,model=1,daily=IP,status=variable
new load.IP1146389M1 bus1=BBT2679949.1.3.0,Phases=2,kv=0.22,kW=0.08064,pf=0.92,Vminpu=0.92,Vmaxpu=1.5,model=1,daily=IP,status=variable
new load.IP1146396M1 bus1=BBT2679956.1.2.0,Phases=2,kv=0.22,kW=0.08064,pf=0.92,Vminpu=0.92,Vmaxpu=1.5,model=1,daily=IP,status=variable
new load.IP1146403M1 bus1=BBT2679928.1.3.0,Phases=2,kv=0.22,kW=0.08064,pf=0.92,Vminpu=0.92,Vmaxpu=1.5,model=1,daily=IP,status=variable
new load.IP1146410M1 bus1=BBT2679921.2.3.0,Phases=2,kv=0.22,kW=0.08064,pf=0.92,Vminpu=0.92,Vmaxpu=1.5,model=1,daily=IP,status=variable
new load.IP1146417M1 bus1=BBT2679970.1.2.0,Phases=2,kv=0.22,kW=0.08064,pf=0.92,Vminpu=0.92,Vmaxpu=1.5,model=1,daily=IP,status=variable
new load.IP1146424M1 bus1=BBT2679977.1.2.0,Phases=2,kv=0.22,kW=0.08064,pf=0.92,Vminpu=0.92,Vmaxpu=1.5,model=1,daily=IP,status=variable
new load.IP1146431M1 bus1=BBT2679984.1.3.0,Phases=2,kv=0.22,kW=0.08064,pf=0.92,Vminpu=0.92,Vmaxpu=1.5,model=1,daily=IP,status=variable
new load.IP1146438M1 bus1=BBT2680005.1.3.0,Phases=2,kv=0.22,kW=0.08064,pf=0.92,Vminpu=0.92,Vmaxpu=1.5,model=1,daily=IP,status=variable
new load.IP1146445M1 bus1=BBT2680005.1.3.0,Phases=2,kv=0.22,kW=0.08064,pf=0.92,Vminpu=0.92,Vmaxpu=1.5,model=1,daily=IP,status=variable
new load.IP1146452M1 bus1=BBT2679991.2.3.0,Phases=2,kv=0.22,kW=0.08064,pf=0.92,Vminpu=0.92,Vmaxpu=1.5,model=1,daily=IP,status=variable
new load.IP1146459M1 bus1=BBT2679998.1.2.0,Phases=2,kv=0.22,kW=0.08064,pf=0.92,Vminpu=0.92,Vmaxpu=1.5,model=1,daily=IP,status=variable
new load.IP1146466M1 bus1=BBT2680012.1.2.0,Phases=2,kv=0.22,kW=0.08064,pf=0.92,Vminpu=0.92,Vmaxpu=1.5,model=1,daily=IP,status=variable
new load.IP1146473M1 bus1=BBT2680019.1.2.0,Phases=2,kv=0.22,kW=0.08064,pf=0.92,Vminpu=0.92,Vmaxpu=1.5,model=1,daily=IP,status=variable
new load.IP1146480M1 bus1=BBT2680019.1.2.0,Phases=2,kv=0.22,kW=0.08064,pf=0.92,Vminpu=0.92,Vmaxpu=1.5,model=1,daily=IP,status=variable
new load.IP1146669M1 bus1=BBT2680593.2.3.0,Phases=2,kv=0.22,kW=0.1129,pf=0.92,Vminpu=0.92,Vmaxpu=1.5,model=1,daily=IP,status=variable
new load.IP1146676M1 bus1=BBT2680586.1.3.0,Phases=2,kv=0.22,kW=0.1129,pf=0.92,Vminpu=0.92,Vmaxpu=1.5,model=1,daily=IP,status=variable
new load.IP1146683M1 bus1=BBT2680572.1.2.0,Phases=2,kv=0.22,kW=0.1129,pf=0.92,Vminpu=0.92,Vmaxpu=1.5,model=1,daily=IP,status=variable
new load.IP1146690M1 bus1=BBT2680565.2.3.0,Phases=2,kv=0.22,kW=0.08064,pf=0.92,Vminpu=0.92,Vmaxpu=1.5,model=1,daily=IP,status=variable
new load.IP1146697M1 bus1=BBT2680579.1.2.0,Phases=2,kv=0.22,kW=0.08064,pf=0.92,Vminpu=0.92,Vmaxpu=1.5,model=1,daily=IP,status=variable
new load.IP1146704M1 bus1=BBT2680579.1.2.0,Phases=2,kv=0.22,kW=0.08064,pf=0.92,Vminpu=0.92,Vmaxpu=1.5,model=1,daily=IP,status=variable
new load.IP1146711M1 bus1=BBT2680600.2.3.0,Phases=2,kv=0.22,kW=0.1129,pf=0.92,Vminpu=0.92,Vmaxpu=1.5,model=1,daily=IP,status=variable
new load.IP1146718M1 bus1=BBT2680607.2.3.0,Phases=2,kv=0.22,kW=0.1129,pf=0.92,Vminpu=0.92,Vmaxpu=1.5,model=1,daily=IP,status=variable
new load.IP1146725M1 bus1=BBT2680614.1.3.0,Phases=2,kv=0.22,kW=0.1129,pf=0.92,Vminpu=0.92,Vmaxpu=1.5,model=1,daily=IP,status=variable
new load.IP1146732M1 bus1=BBT2680796.1.2.0,Phases=2,kv=0.22,kW=0.08064,pf=0.92,Vminpu=0.92,Vmaxpu=1.5,model=1,daily=IP,status=variable
new load.IP1146739M1 bus1=BBT2680789.1.3.0,Phases=2,kv=0.22,kW=0.08064,pf=0.92,Vminpu=0.92,Vmaxpu=1.5,model=1,daily=IP,status=variable
new load.IP1146746M1 bus1=BBT2680782.2.3.0,Phases=2,kv=0.22,kW=0.08064,pf=0.92,Vminpu=0.92,Vmaxpu=1.5,model=1,daily=IP,status=variable
new load.3004764950M1 bus1=RML1050435077.1.2.0,Phases=2,kv=0.24,kW=5.75222,pf=0.92,Vminpu=0.92,Vmaxpu=1.5,model=1,daily=RUR4_5,status=variable
new load.3007756365M1 bus1=RML1054262320.1.2.3.0,Phases=3,kv=0.22,kW=8.04828,pf=0.92,Vminpu=0.92,Vmaxpu=1.5,model=1,daily=RUR4_1,status=variable
new load.3010018164M1 bus1=RML1060896947.1.2.3.0,Phases=3,kv=0.22,kW=10.06368,pf=0.92,Vminpu=0.92,Vmaxpu=1.5,model=1,daily=RUR4_1,status=variable
new load.3010940970M1 bus1=RML1054973933.3.0,Phases=1,kv=0.127,kW=1.19952,pf=0.92,Vminpu=0.92,Vmaxpu=1.5,model=1,daily=RES2_20,status=variable
new load.3010942509M1 bus1=RML1054973898.3.0,Phases=1,kv=0.127,kW=0.14992,pf=0.92,Vminpu=0.92,Vmaxpu=1.5,model=1,daily=RES1_18,status=variable
new load.3010943194M1 bus1=RML1055030843.1.2.0,Phases=2,kv=0.22,kW=0.05458,pf=0.92,Vminpu=0.92,Vmaxpu=1.5,model=1,daily=RES3_16,status=variable
new load.3012074477M1 bus1=RML1060473917.1.0,Phases=1,kv=0.127,kW=1.3716,pf=0.92,Vminpu=0.92,Vmaxpu=1.5,model=1,daily=RES1_13,status=variable
new load.3013454291M1 bus1=RML1060789094.2.0,Phases=1,kv=0.12,kW=0.59582,pf=0.92,Vminpu=0.92,Vmaxpu=1.5,model=1,daily=RUR1_17,status=variable
new load.IP1181725M1 bus1=BBT2795890.1.2.0,Phases=2,kv=0.22,kW=0.08064,pf=0.92,Vminpu=0.92,Vmaxpu=1.5,model=1,daily=IP,status=variable
new load.IP1181732M1 bus1=BBT2795897.1.3.0,Phases=2,kv=0.22,kW=0.08064,pf=0.92,Vminpu=0.92,Vmaxpu=1.5,model=1,daily=IP,status=variable
new load.IP1181739M1 bus1=BBT2796163.1.2.0,Phases=2,kv=0.22,kW=0.08064,pf=0.92,Vminpu=0.92,Vmaxpu=1.5,model=1,daily=IP,status=variable
new load.IP1181746M1 bus1=BBT2796170.2.3.0,Phases=2,kv=0.22,kW=0.08064,pf=0.92,Vminpu=0.92,Vmaxpu=1.5,model=1,daily=IP,status=variable
new load.IP1181753M1 bus1=BBT2796177.1.2.0,Phases=2,kv=0.22,kW=0.08064,pf=0.92,Vminpu=0.92,Vmaxpu=1.5,model=1,daily=IP,status=variable
new load.IP1181760M1 bus1=BBT2796184.1.3.0,Phases=2,kv=0.22,kW=0.08064,pf=0.92,Vminpu=0.92,Vmaxpu=1.5,model=1,daily=IP,status=variable
new load.IP1181767M1 bus1=BBT2796191.2.3.0,Phases=2,kv=0.22,kW=0.08064,pf=0.92,Vminpu=0.92,Vmaxpu=1.5,model=1,daily=IP,status=variable
new load.IP1181774M1 bus1=BBT2680026.1.2.0,Phases=2,kv=0.22,kW=0.08064,pf=0.92,Vminpu=0.92,Vmaxpu=1.5,model=1,daily=IP,status=variable
new load.IP1181809M1 bus1=BBT2796261.1.3.0,Phases=2,kv=0.22,kW=0.08064,pf=0.92,Vminpu=0.92,Vmaxpu=1.5,model=1,daily=IP,status=variable
new load.IP1181816M1 bus1=BBT2796268.1.2.0,Phases=2,kv=0.22,kW=0.08064,pf=0.92,Vminpu=0.92,Vmaxpu=1.5,model=1,daily=IP,status=variable
new load.IP1181823M1 bus1=BBT2796681.1.2.0,Phases=2,kv=0.22,kW=0.08064,pf=0.92,Vminpu=0.92,Vmaxpu=1.5,model=1,daily=IP,status=variable
new load.IP1181830M1 bus1=BBT2796688.1.3.0,Phases=2,kv=0.22,kW=0.08064,pf=0.92,Vminpu=0.92,Vmaxpu=1.5,model=1,daily=IP,status=variable
new load.IP1181837M1 bus1=BBT2796695.2.3.0,Phases=2,kv=0.22,kW=0.08064,pf=0.92,Vminpu=0.92,Vmaxpu=1.5,model=1,daily=IP,status=variable
new load.IP1181844M1 bus1=BBT2796247.1.2.0,Phases=2,kv=0.22,kW=0.08064,pf=0.92,Vminpu=0.92,Vmaxpu=1.5,model=1,daily=IP,status=variable
new load.IP1181907M1 bus1=BBT2796709.1.3.0,Phases=2,kv=0.22,kW=0.08064,pf=0.92,Vminpu=0.92,Vmaxpu=1.5,model=1,daily=IP,status=variable
new load.IP1181914M1 bus1=BBT2796716.2.3.0,Phases=2,kv=0.22,kW=0.08064,pf=0.92,Vminpu=0.92,Vmaxpu=1.5,model=1,daily=IP,status=variable
new load.IP1181921M1 bus1=BBT2796723.2.3.0,Phases=2,kv=0.22,kW=0.08064,pf=0.92,Vminpu=0.92,Vmaxpu=1.5,model=1,daily=IP,status=variable
new load.IP1182054M1 bus1=BBT2796240.1.3.0,Phases=2,kv=0.22,kW=0.08064,pf=0.92,Vminpu=0.92,Vmaxpu=1.5,model=1,daily=IP,status=variable
new load.IP1182061M1 bus1=BBT2797115.1.3.0,Phases=2,kv=0.22,kW=0.08064,pf=0.92,Vminpu=0.92,Vmaxpu=1.5,model=1,daily=IP,status=variable
new load.IP1182068M1 bus1=BBT2797101.1.2.0,Phases=2,kv=0.22,kW=0.08064,pf=0.92,Vminpu=0.92,Vmaxpu=1.5,model=1,daily=IP,status=variable
new load.IP1182075M1 bus1=BBT2797101.1.2.0,Phases=2,kv=0.22,kW=0.08064,pf=0.92,Vminpu=0.92,Vmaxpu=1.5,model=1,daily=IP,status=variable
new load.IP1182082M1 bus1=BBT2797094.2.3.0,Phases=2,kv=0.22,kW=0.08064,pf=0.92,Vminpu=0.92,Vmaxpu=1.5,model=1,daily=IP,status=variable
new load.IP1182089M1 bus1=BBT2797087.1.3.0,Phases=2,kv=0.22,kW=0.08064,pf=0.92,Vminpu=0.92,Vmaxpu=1.5,model=1,daily=IP,status=variable
new load.IP1182096M1 bus1=BBT2797080.1.2.0,Phases=2,kv=0.22,kW=0.08064,pf=0.92,Vminpu=0.92,Vmaxpu=1.5,model=1,daily=IP,status=variable
new load.IP1182103M1 bus1=BBT2796961.2.3.0,Phases=2,kv=0.22,kW=0.08064,pf=0.92,Vminpu=0.92,Vmaxpu=1.5,model=1,daily=IP,status=variable
new load.IP1182110M1 bus1=BBT2796961.2.3.0,Phases=2,kv=0.22,kW=0.08064,pf=0.92,Vminpu=0.92,Vmaxpu=1.5,model=1,daily=IP,status=variable
new load.IP1182117M1 bus1=BBT2797073.1.2.0,Phases=2,kv=0.22,kW=0.08064,pf=0.92,Vminpu=0.92,Vmaxpu=1.5,model=1,daily=IP,status=variable
new load.IP1182124M1 bus1=BBT2797073.1.2.0,Phases=2,kv=0.22,kW=0.08064,pf=0.92,Vminpu=0.92,Vmaxpu=1.5,model=1,daily=IP,status=variable
new load.IP1182131M1 bus1=BBT2797024.1.3.0,Phases=2,kv=0.22,kW=0.08064,pf=0.92,Vminpu=0.92,Vmaxpu=1.5,model=1,daily=IP,status=variable
new load.IP1182138M1 bus1=BBT2797017.2.3.0,Phases=2,kv=0.22,kW=0.08064,pf=0.92,Vminpu=0.92,Vmaxpu=1.5,model=1,daily=IP,status=variable
new load.IP1182145M1 bus1=BBT2797010.1.3.0,Phases=2,kv=0.22,kW=0.08064,pf=0.92,Vminpu=0.92,Vmaxpu=1.5,model=1,daily=IP,status=variable
new load.IP1182152M1 bus1=BBT2797185.2.3.0,Phases=2,kv=0.22,kW=0.08064,pf=0.92,Vminpu=0.92,Vmaxpu=1.5,model=1,daily=IP,status=variable
new load.IP1182159M1 bus1=BBT2797185.2.3.0,Phases=2,kv=0.22,kW=0.08064,pf=0.92,Vminpu=0.92,Vmaxpu=1.5,model=1,daily=IP,status=variable
new load.IP1182166M1 bus1=BBT2797178.1.2.0,Phases=2,kv=0.22,kW=0.08064,pf=0.92,Vminpu=0.92,Vmaxpu=1.5,model=1,daily=IP,status=variable
new load.IP1182173M1 bus1=BBT2797171.2.3.0,Phases=2,kv=0.22,kW=0.08064,pf=0.92,Vminpu=0.92,Vmaxpu=1.5,model=1,daily=IP,status=variable
new load.IP1182180M1 bus1=BBT2797164.1.3.0,Phases=2,kv=0.22,kW=0.08064,pf=0.92,Vminpu=0.92,Vmaxpu=1.5,model=1,daily=IP,status=variable
new load.IP1182187M1 bus1=BBT2797157.2.3.0,Phases=2,kv=0.22,kW=0.08064,pf=0.92,Vminpu=0.92,Vmaxpu=1.5,model=1,daily=IP,status=variable
new load.IP1182194M1 bus1=BBT2797150.1.2.0,Phases=2,kv=0.22,kW=0.08064,pf=0.92,Vminpu=0.92,Vmaxpu=1.5,model=1,daily=IP,status=variable
new load.IP1182208M1 bus1=BBT2797318.2.3.0,Phases=2,kv=0.22,kW=0.08064,pf=0.92,Vminpu=0.92,Vmaxpu=1.5,model=1,daily=IP,status=variable
new load.IP1182215M1 bus1=BBT2797318.2.3.0,Phases=2,kv=0.22,kW=0.08064,pf=0.92,Vminpu=0.92,Vmaxpu=1.5,model=1,daily=IP,status=variable
new load.IP1182229M1 bus1=BBT2797311.1.2.0,Phases=2,kv=0.22,kW=0.08064,pf=0.92,Vminpu=0.92,Vmaxpu=1.5,model=1,daily=IP,status=variable
new load.IP1182250M1 bus1=BBT2797304.1.3.0,Phases=2,kv=0.22,kW=0.08064,pf=0.92,Vminpu=0.92,Vmaxpu=1.5,model=1,daily=IP,status=variable
new load.IP1182264M1 bus1=BBT2797262.2.3.0,Phases=2,kv=0.22,kW=0.08064,pf=0.92,Vminpu=0.92,Vmaxpu=1.5,model=1,daily=IP,status=variable
new load.IP1182292M1 bus1=BBT2797269.1.2.0,Phases=2,kv=0.22,kW=0.08064,pf=0.92,Vminpu=0.92,Vmaxpu=1.5,model=1,daily=IP,status=variable
new load.IP1182306M1 bus1=BBT2797269.1.2.0,Phases=2,kv=0.22,kW=0.08064,pf=0.92,Vminpu=0.92,Vmaxpu=1.5,model=1,daily=IP,status=variable
new load.IP1182327M1 bus1=BBT2797374.1.3.0,Phases=2,kv=0.22,kW=0.08064,pf=0.92,Vminpu=0.92,Vmaxpu=1.5,model=1,daily=IP,status=variable
new load.IP1182334M1 bus1=BBT2797381.2.3.0,Phases=2,kv=0.22,kW=0.08064,pf=0.92,Vminpu=0.92,Vmaxpu=1.5,model=1,daily=IP,status=variable
new load.IP1182341M1 bus1=BBT2797388.1.2.0,Phases=2,kv=0.22,kW=0.08064,pf=0.92,Vminpu=0.92,Vmaxpu=1.5,model=1,daily=IP,status=variable
new load.IP1182348M1 bus1=BBT2797395.2.3.0,Phases=2,kv=0.22,kW=0.08064,pf=0.92,Vminpu=0.92,Vmaxpu=1.5,model=1,daily=IP,status=variable
new load.IP1182355M1 bus1=BBT2797423.1.2.0,Phases=2,kv=0.22,kW=0.08064,pf=0.92,Vminpu=0.92,Vmaxpu=1.5,model=1,daily=IP,status=variable
new load.IP1182362M1 bus1=BBT2797451.1.2.0,Phases=2,kv=0.22,kW=0.08064,pf=0.92,Vminpu=0.92,Vmaxpu=1.5,model=1,daily=IP,status=variable
new load.IP1182369M1 bus1=BBT2797472.2.3.0,Phases=2,kv=0.22,kW=0.08064,pf=0.92,Vminpu=0.92,Vmaxpu=1.5,model=1,daily=IP,status=variable
new load.IP1182376M1 bus1=BBT2797465.1.3.0,Phases=2,kv=0.22,kW=0.08064,pf=0.92,Vminpu=0.92,Vmaxpu=1.5,model=1,daily=IP,status=variable
new load.IP1182383M1 bus1=BBT2797458.1.2.0,Phases=2,kv=0.22,kW=0.08064,pf=0.92,Vminpu=0.92,Vmaxpu=1.5,model=1,daily=IP,status=variable
new load.IP1182390M1 bus1=BBT2797283.1.3.0,Phases=2,kv=0.22,kW=0.08064,pf=0.92,Vminpu=0.92,Vmaxpu=1.5,model=1,daily=IP,status=variable
new load.IP1182397M1 bus1=BBT2797283.1.3.0,Phases=2,kv=0.22,kW=0.08064,pf=0.92,Vminpu=0.92,Vmaxpu=1.5,model=1,daily=IP,status=variable
new load.IP1182404M1 bus1=BBT2797346.1.2.0,Phases=2,kv=0.22,kW=0.08064,pf=0.92,Vminpu=0.92,Vmaxpu=1.5,model=1,daily=IP,status=variable
new load.IP1182411M1 bus1=BBT2797353.2.3.0,Phases=2,kv=0.22,kW=0.08064,pf=0.92,Vminpu=0.92,Vmaxpu=1.5,model=1,daily=IP,status=variable
new load.IP1182418M1 bus1=BBT2797360.1.3.0,Phases=2,kv=0.22,kW=0.08064,pf=0.92,Vminpu=0.92,Vmaxpu=1.5,model=1,daily=IP,status=variable
new load.IP1182425M1 bus1=BBT2797339.1.2.0,Phases=2,kv=0.22,kW=0.08064,pf=0.92,Vminpu=0.92,Vmaxpu=1.5,model=1,daily=IP,status=variable
new load.IP1182432M1 bus1=BBT2797339.1.2.0,Phases=2,kv=0.22,kW=0.08064,pf=0.92,Vminpu=0.92,Vmaxpu=1.5,model=1,daily=IP,status=variable
new load.IP1182439M1 bus1=BBT2797332.1.3.0,Phases=2,kv=0.22,kW=0.08064,pf=0.92,Vminpu=0.92,Vmaxpu=1.5,model=1,daily=IP,status=variable
new load.IP1182446M1 bus1=BBT2797290.1.2.0,Phases=2,kv=0.22,kW=0.08064,pf=0.92,Vminpu=0.92,Vmaxpu=1.5,model=1,daily=IP,status=variable
new load.IP1182453M1 bus1=BBT2797486.1.3.0,Phases=2,kv=0.22,kW=0.08064,pf=0.92,Vminpu=0.92,Vmaxpu=1.5,model=1,daily=IP,status=variable
new load.IP1182460M1 bus1=BBT2797045.1.3.0,Phases=2,kv=0.22,kW=0.08064,pf=0.92,Vminpu=0.92,Vmaxpu=1.5,model=1,daily=IP,status=variable
new load.IP1182467M1 bus1=BBT2797493.1.3.0,Phases=2,kv=0.22,kW=0.08064,pf=0.92,Vminpu=0.92,Vmaxpu=1.5,model=1,daily=IP,status=variable
new load.IP1182474M1 bus1=BBT2797241.2.3.0,Phases=2,kv=0.22,kW=0.08064,pf=0.92,Vminpu=0.92,Vmaxpu=1.5,model=1,daily=IP,status=variable
new load.IP1182558M1 bus1=BBT2680222.1.3.0,Phases=2,kv=0.22,kW=0.08064,pf=0.92,Vminpu=0.92,Vmaxpu=1.5,model=1,daily=IP,status=variable
new load.IP1182943M1 bus1=BBT2798284.1.3.0,Phases=2,kv=0.22,kW=0.1129,pf=0.92,Vminpu=0.92,Vmaxpu=1.5,model=1,daily=IP,status=variable
new load.IP1182950M1 bus1=BBT2798291.2.3.0,Phases=2,kv=0.22,kW=0.1129,pf=0.92,Vminpu=0.92,Vmaxpu=1.5,model=1,daily=IP,status=variable
new load.IP1182957M1 bus1=BBT2798291.2.3.0,Phases=2,kv=0.22,kW=0.1129,pf=0.92,Vminpu=0.92,Vmaxpu=1.5,model=1,daily=IP,status=variable
new load.IP1182964M1 bus1=BBT2798298.1.2.0,Phases=2,kv=0.22,kW=0.1129,pf=0.92,Vminpu=0.92,Vmaxpu=1.5,model=1,daily=IP,status=variable
new load.IP1182971M1 bus1=BBT2798305.1.3.0,Phases=2,kv=0.22,kW=0.1129,pf=0.92,Vminpu=0.92,Vmaxpu=1.5,model=1,daily=IP,status=variable
new load.IP1182978M1 bus1=BBT2798305.1.3.0,Phases=2,kv=0.22,kW=0.1129,pf=0.92,Vminpu=0.92,Vmaxpu=1.5,model=1,daily=IP,status=variable
new load.IP1182985M1 bus1=BBT2798312.2.3.0,Phases=2,kv=0.22,kW=0.1129,pf=0.92,Vminpu=0.92,Vmaxpu=1.5,model=1,daily=IP,status=variable
new load.IP1182992M1 bus1=BBT2798319.1.2.0,Phases=2,kv=0.22,kW=0.1129,pf=0.92,Vminpu=0.92,Vmaxpu=1.5,model=1,daily=IP,status=variable
new load.IP1182999M1 bus1=BBT2798319.1.2.0,Phases=2,kv=0.22,kW=0.1129,pf=0.92,Vminpu=0.92,Vmaxpu=1.5,model=1,daily=IP,status=variable
new load.IP1183006M1 bus1=BBT2798333.1.2.0,Phases=2,kv=0.22,kW=0.08064,pf=0.92,Vminpu=0.92,Vmaxpu=1.5,model=1,daily=IP,status=variable
new load.IP1183013M1 bus1=BBT2798347.1.3.0,Phases=2,kv=0.22,kW=0.08064,pf=0.92,Vminpu=0.92,Vmaxpu=1.5,model=1,daily=IP,status=variable
new load.IP1183020M1 bus1=BBT2798361.1.2.0,Phases=2,kv=0.22,kW=0.08064,pf=0.92,Vminpu=0.92,Vmaxpu=1.5,model=1,daily=IP,status=variable
new load.IP1183027M1 bus1=BBT2798354.1.2.0,Phases=2,kv=0.22,kW=0.08064,pf=0.92,Vminpu=0.92,Vmaxpu=1.5,model=1,daily=IP,status=variable
new load.IP1183034M1 bus1=BBT2798354.1.2.0,Phases=2,kv=0.22,kW=0.08064,pf=0.92,Vminpu=0.92,Vmaxpu=1.5,model=1,daily=IP,status=variable
new load.IP1183041M1 bus1=BBT2798368.1.3.0,Phases=2,kv=0.22,kW=0.08064,pf=0.92,Vminpu=0.92,Vmaxpu=1.5,model=1,daily=IP,status=variable
new load.IP1183048M1 bus1=BBT2798340.2.3.0,Phases=2,kv=0.22,kW=0.08064,pf=0.92,Vminpu=0.92,Vmaxpu=1.5,model=1,daily=IP,status=variable
new load.IP1183055M1 bus1=BBT2798340.2.3.0,Phases=2,kv=0.22,kW=0.08064,pf=0.92,Vminpu=0.92,Vmaxpu=1.5,model=1,daily=IP,status=variable
new load.IP1183062M1 bus1=BBT2798382.2.3.0,Phases=2,kv=0.22,kW=0.08064,pf=0.92,Vminpu=0.92,Vmaxpu=1.5,model=1,daily=IP,status=variable
new load.IP1183069M1 bus1=BBT2798389.1.3.0,Phases=2,kv=0.22,kW=0.08064,pf=0.92,Vminpu=0.92,Vmaxpu=1.5,model=1,daily=IP,status=variable
new load.IP1183076M1 bus1=BBT2798389.1.3.0,Phases=2,kv=0.22,kW=0.08064,pf=0.92,Vminpu=0.92,Vmaxpu=1.5,model=1,daily=IP,status=variable
new load.IP1183083M1 bus1=BBT2798396.2.3.0,Phases=2,kv=0.22,kW=0.08064,pf=0.92,Vminpu=0.92,Vmaxpu=1.5,model=1,daily=IP,status=variable
new load.IP1183090M1 bus1=BBT2798410.2.3.0,Phases=2,kv=0.22,kW=0.08064,pf=0.92,Vminpu=0.92,Vmaxpu=1.5,model=1,daily=IP,status=variable
new load.IP1183104M1 bus1=BBT2798459.1.2.0,Phases=2,kv=0.22,kW=0.1129,pf=0.92,Vminpu=0.92,Vmaxpu=1.5,model=1,daily=IP,status=variable
new load.IP1183111M1 bus1=BBT2798459.1.2.0,Phases=2,kv=0.22,kW=0.1129,pf=0.92,Vminpu=0.92,Vmaxpu=1.5,model=1,daily=IP,status=variable
new load.IP1183118M1 bus1=BBT2798452.1.3.0,Phases=2,kv=0.22,kW=0.1129,pf=0.92,Vminpu=0.92,Vmaxpu=1.5,model=1,daily=IP,status=variable
new load.IP1183125M1 bus1=BBT2798445.2.3.0,Phases=2,kv=0.22,kW=0.1129,pf=0.92,Vminpu=0.92,Vmaxpu=1.5,model=1,daily=IP,status=variable
new load.IP1183132M1 bus1=BBT2798438.1.2.0,Phases=2,kv=0.22,kW=0.1129,pf=0.92,Vminpu=0.92,Vmaxpu=1.5,model=1,daily=IP,status=variable
new load.IP1183139M1 bus1=BBT2798431.1.3.0,Phases=2,kv=0.22,kW=0.1129,pf=0.92,Vminpu=0.92,Vmaxpu=1.5,model=1,daily=IP,status=variable
new load.IP1183146M1 bus1=BBT2798501.2.3.0,Phases=2,kv=0.22,kW=0.08064,pf=0.92,Vminpu=0.92,Vmaxpu=1.5,model=1,daily=IP,status=variable
new load.IP1183153M1 bus1=BBT2798536.1.3.0,Phases=2,kv=0.22,kW=0.08064,pf=0.92,Vminpu=0.92,Vmaxpu=1.5,model=1,daily=IP,status=variable
new load.IP1183160M1 bus1=BBT2798529.2.3.0,Phases=2,kv=0.22,kW=0.08064,pf=0.92,Vminpu=0.92,Vmaxpu=1.5,model=1,daily=IP,status=variable
new load.IP1183167M1 bus1=BBT2798522.1.2.0,Phases=2,kv=0.22,kW=0.08064,pf=0.92,Vminpu=0.92,Vmaxpu=1.5,model=1,daily=IP,status=variable
new load.IP1183174M1 bus1=BBT2798515.1.3.0,Phases=2,kv=0.22,kW=0.08064,pf=0.92,Vminpu=0.92,Vmaxpu=1.5,model=1,daily=IP,status=variable
new load.IP1183181M1 bus1=BBT2798466.1.3.0,Phases=2,kv=0.22,kW=0.08064,pf=0.92,Vminpu=0.92,Vmaxpu=1.5,model=1,daily=IP,status=variable
new load.IP1183188M1 bus1=BBT2798508.2.3.0,Phases=2,kv=0.22,kW=0.08064,pf=0.92,Vminpu=0.92,Vmaxpu=1.5,model=1,daily=IP,status=variable
new load.IP1183195M1 bus1=BBT2798550.1.3.0,Phases=2,kv=0.22,kW=0.08064,pf=0.92,Vminpu=0.92,Vmaxpu=1.5,model=1,daily=IP,status=variable
new load.IP1183202M1 bus1=BBT2798557.2.3.0,Phases=2,kv=0.22,kW=0.08064,pf=0.92,Vminpu=0.92,Vmaxpu=1.5,model=1,daily=IP,status=variable
new load.IP1183216M1 bus1=BBT2798585.1.2.0,Phases=2,kv=0.22,kW=0.08064,pf=0.92,Vminpu=0.92,Vmaxpu=1.5,model=1,daily=IP,status=variable
new load.IP1183230M1 bus1=BBT2798634.1.2.0,Phases=2,kv=0.22,kW=0.08064,pf=0.92,Vminpu=0.92,Vmaxpu=1.5,model=1,daily=IP,status=variable
new load.IP1183237M1 bus1=BBT2798627.1.3.0,Phases=2,kv=0.22,kW=0.08064,pf=0.92,Vminpu=0.92,Vmaxpu=1.5,model=1,daily=IP,status=variable
new load.IP1183244M1 bus1=BBT2798620.2.3.0,Phases=2,kv=0.22,kW=0.08064,pf=0.92,Vminpu=0.92,Vmaxpu=1.5,model=1,daily=IP,status=variable
new load.IP1183251M1 bus1=BBT2798613.1.3.0,Phases=2,kv=0.22,kW=0.08064,pf=0.92,Vminpu=0.92,Vmaxpu=1.5,model=1,daily=IP,status=variable
new load.IP1183265M1 bus1=BBT2798613.1.3.0,Phases=2,kv=0.22,kW=0.08064,pf=0.92,Vminpu=0.92,Vmaxpu=1.5,model=1,daily=IP,status=variable
new load.IP1183272M1 bus1=BBT2798606.2.3.0,Phases=2,kv=0.22,kW=0.08064,pf=0.92,Vminpu=0.92,Vmaxpu=1.5,model=1,daily=IP,status=variable
new load.IP1183279M1 bus1=BBT2798641.1.3.0,Phases=2,kv=0.22,kW=0.08064,pf=0.92,Vminpu=0.92,Vmaxpu=1.5,model=1,daily=IP,status=variable
new load.IP1183286M1 bus1=BBT2798648.2.3.0,Phases=2,kv=0.22,kW=0.08064,pf=0.92,Vminpu=0.92,Vmaxpu=1.5,model=1,daily=IP,status=variable
new load.IP1183293M1 bus1=BBT2798655.1.3.0,Phases=2,kv=0.22,kW=0.08064,pf=0.92,Vminpu=0.92,Vmaxpu=1.5,model=1,daily=IP,status=variable
new load.IP1183300M1 bus1=BBT2798669.2.3.0,Phases=2,kv=0.22,kW=0.08064,pf=0.92,Vminpu=0.92,Vmaxpu=1.5,model=1,daily=IP,status=variable
new load.IP1183307M1 bus1=BBT2798662.1.2.0,Phases=2,kv=0.22,kW=0.08064,pf=0.92,Vminpu=0.92,Vmaxpu=1.5,model=1,daily=IP,status=variable
new load.IP1183314M1 bus1=BBT2798662.1.2.0,Phases=2,kv=0.22,kW=0.08064,pf=0.92,Vminpu=0.92,Vmaxpu=1.5,model=1,daily=IP,status=variable
new load.IP1183321M1 bus1=BBT2798683.1.3.0,Phases=2,kv=0.22,kW=0.08064,pf=0.92,Vminpu=0.92,Vmaxpu=1.5,model=1,daily=IP,status=variable
new load.IP1183328M1 bus1=BBT2798697.1.3.0,Phases=2,kv=0.22,kW=0.08064,pf=0.92,Vminpu=0.92,Vmaxpu=1.5,model=1,daily=IP,status=variable
new load.IP1183335M1 bus1=BBT2798676.2.3.0,Phases=2,kv=0.22,kW=0.08064,pf=0.92,Vminpu=0.92,Vmaxpu=1.5,model=1,daily=IP,status=variable
new load.IP1183342M1 bus1=BBT2798676.2.3.0,Phases=2,kv=0.22,kW=0.08064,pf=0.92,Vminpu=0.92,Vmaxpu=1.5,model=1,daily=IP,status=variable
new load.IP1183349M1 bus1=BBT2798711.1.3.0,Phases=2,kv=0.22,kW=0.08064,pf=0.92,Vminpu=0.92,Vmaxpu=1.5,model=1,daily=IP,status=variable
new load.IP1183356M1 bus1=BBT2798704.2.3.0,Phases=2,kv=0.22,kW=0.08064,pf=0.92,Vminpu=0.92,Vmaxpu=1.5,model=1,daily=IP,status=variable
new load.IP1183419M1 bus1=BBT2798767.1.2.0,Phases=2,kv=0.22,kW=0.08064,pf=0.92,Vminpu=0.92,Vmaxpu=1.5,model=1,daily=IP,status=variable
new load.IP1183426M1 bus1=BBT2798865.1.3.0,Phases=2,kv=0.22,kW=0.08064,pf=0.92,Vminpu=0.92,Vmaxpu=1.5,model=1,daily=IP,status=variable
new load.IP1183433M1 bus1=BBT2798865.1.3.0,Phases=2,kv=0.22,kW=0.08064,pf=0.92,Vminpu=0.92,Vmaxpu=1.5,model=1,daily=IP,status=variable
new load.IP1183440M1 bus1=BBT2798781.2.3.0,Phases=2,kv=0.22,kW=0.08064,pf=0.92,Vminpu=0.92,Vmaxpu=1.5,model=1,daily=IP,status=variable
new load.IP1183447M1 bus1=BBT2798879.1.2.0,Phases=2,kv=0.22,kW=0.08064,pf=0.92,Vminpu=0.92,Vmaxpu=1.5,model=1,daily=IP,status=variable
new load.IP1183454M1 bus1=BBT2798893.2.3.0,Phases=2,kv=0.22,kW=0.08064,pf=0.92,Vminpu=0.92,Vmaxpu=1.5,model=1,daily=IP,status=variable
new load.IP1183461M1 bus1=BBT2798886.1.2.0,Phases=2,kv=0.22,kW=0.08064,pf=0.92,Vminpu=0.92,Vmaxpu=1.5,model=1,daily=IP,status=variable
new load.IP1183468M1 bus1=BBT2798886.1.2.0,Phases=2,kv=0.22,kW=0.08064,pf=0.92,Vminpu=0.92,Vmaxpu=1.5,model=1,daily=IP,status=variable
new load.IP1183475M1 bus1=BBT2798921.2.3.0,Phases=2,kv=0.22,kW=0.08064,pf=0.92,Vminpu=0.92,Vmaxpu=1.5,model=1,daily=IP,status=variable
new load.IP1183489M1 bus1=BBT2798935.1.3.0,Phases=2,kv=0.22,kW=0.08064,pf=0.92,Vminpu=0.92,Vmaxpu=1.5,model=1,daily=IP,status=variable
new load.IP1183503M1 bus1=BBT2798942.1.3.0,Phases=2,kv=0.22,kW=0.08064,pf=0.92,Vminpu=0.92,Vmaxpu=1.5,model=1,daily=IP,status=variable
new load.IP1183510M1 bus1=BBT2798914.2.3.0,Phases=2,kv=0.22,kW=0.08064,pf=0.92,Vminpu=0.92,Vmaxpu=1.5,model=1,daily=IP,status=variable
new load.IP1183517M1 bus1=BBT2798907.2.3.0,Phases=2,kv=0.22,kW=0.08064,pf=0.92,Vminpu=0.92,Vmaxpu=1.5,model=1,daily=IP,status=variable
new load.IP1183524M1 bus1=BBT2798900.1.3.0,Phases=2,kv=0.22,kW=0.08064,pf=0.92,Vminpu=0.92,Vmaxpu=1.5,model=1,daily=IP,status=variable
new load.IP1183531M1 bus1=BBT2798928.1.2.0,Phases=2,kv=0.22,kW=0.08064,pf=0.92,Vminpu=0.92,Vmaxpu=1.5,model=1,daily=IP,status=variable
new load.IP1183538M1 bus1=BBT2798928.1.2.0,Phases=2,kv=0.22,kW=0.08064,pf=0.92,Vminpu=0.92,Vmaxpu=1.5,model=1,daily=IP,status=variable
new load.IP1183545M1 bus1=BBT2798963.2.3.0,Phases=2,kv=0.22,kW=0.08064,pf=0.92,Vminpu=0.92,Vmaxpu=1.5,model=1,daily=IP,status=variable
new load.IP1183552M1 bus1=BBT2798956.1.3.0,Phases=2,kv=0.22,kW=0.08064,pf=0.92,Vminpu=0.92,Vmaxpu=1.5,model=1,daily=IP,status=variable
new load.IP1183559M1 bus1=BBT2798977.1.3.0,Phases=2,kv=0.22,kW=0.08064,pf=0.92,Vminpu=0.92,Vmaxpu=1.5,model=1,daily=IP,status=variable
new load.IP1183566M1 bus1=BBT2798984.2.3.0,Phases=2,kv=0.22,kW=0.08064,pf=0.92,Vminpu=0.92,Vmaxpu=1.5,model=1,daily=IP,status=variable
new load.IP1183573M1 bus1=BBT2798991.1.2.0,Phases=2,kv=0.22,kW=0.08064,pf=0.92,Vminpu=0.92,Vmaxpu=1.5,model=1,daily=IP,status=variable
new load.IP1183580M1 bus1=BBT2798998.2.3.0,Phases=2,kv=0.22,kW=0.08064,pf=0.92,Vminpu=0.92,Vmaxpu=1.5,model=1,daily=IP,status=variable
new load.IP1183587M1 bus1=BBT2798998.2.3.0,Phases=2,kv=0.22,kW=0.08064,pf=0.92,Vminpu=0.92,Vmaxpu=1.5,model=1,daily=IP,status=variable
new load.IP1183601M1 bus1=BBT2799005.1.2.0,Phases=2,kv=0.22,kW=0.08064,pf=0.92,Vminpu=0.92,Vmaxpu=1.5,model=1,daily=IP,status=variable
new load.IP1183608M1 bus1=BBT2799019.1.2.0,Phases=2,kv=0.22,kW=0.08064,pf=0.92,Vminpu=0.92,Vmaxpu=1.5,model=1,daily=IP,status=variable
new load.IP1183615M1 bus1=BBT2799026.1.3.0,Phases=2,kv=0.22,kW=0.08064,pf=0.92,Vminpu=0.92,Vmaxpu=1.5,model=1,daily=IP,status=variable
new load.IP1183622M1 bus1=BBT2799061.1.2.0,Phases=2,kv=0.22,kW=0.1129,pf=0.92,Vminpu=0.92,Vmaxpu=1.5,model=1,daily=IP,status=variable
new load.IP1183629M1 bus1=BBT2799061.1.2.0,Phases=2,kv=0.22,kW=0.1129,pf=0.92,Vminpu=0.92,Vmaxpu=1.5,model=1,daily=IP,status=variable
new load.IP1183636M1 bus1=BBT2799054.2.3.0,Phases=2,kv=0.22,kW=0.1129,pf=0.92,Vminpu=0.92,Vmaxpu=1.5,model=1,daily=IP,status=variable
new load.IP1183643M1 bus1=BBT2799047.1.2.0,Phases=2,kv=0.22,kW=0.1129,pf=0.92,Vminpu=0.92,Vmaxpu=1.5,model=1,daily=IP,status=variable
new load.IP1183650M1 bus1=BBT2799040.1.3.0,Phases=2,kv=0.22,kW=0.1129,pf=0.92,Vminpu=0.92,Vmaxpu=1.5,model=1,daily=IP,status=variable
new load.IP1183657M1 bus1=BBT2799068.2.3.0,Phases=2,kv=0.22,kW=0.1129,pf=0.92,Vminpu=0.92,Vmaxpu=1.5,model=1,daily=IP,status=variable
new load.IP1183664M1 bus1=BBT2799068.2.3.0,Phases=2,kv=0.22,kW=0.1129,pf=0.92,Vminpu=0.92,Vmaxpu=1.5,model=1,daily=IP,status=variable
new load.IP1183671M1 bus1=BBT2799082.1.2.0,Phases=2,kv=0.22,kW=0.1129,pf=0.92,Vminpu=0.92,Vmaxpu=1.5,model=1,daily=IP,status=variable
new load.IP1183678M1 bus1=BBT2799096.2.3.0,Phases=2,kv=0.22,kW=0.1129,pf=0.92,Vminpu=0.92,Vmaxpu=1.5,model=1,daily=IP,status=variable
new load.IP1183685M1 bus1=BBT2799089.1.2.0,Phases=2,kv=0.22,kW=0.08064,pf=0.92,Vminpu=0.92,Vmaxpu=1.5,model=1,daily=IP,status=variable
new load.3003666532M1 bus1=RML1060632050.1.2.0,Phases=2,kv=0.24,kW=0.02044,pf=0.92,Vminpu=0.92,Vmaxpu=1.5,model=1,daily=RUR1_11,status=variable
new load.3003666533M1 bus1=RML1050434951.1.0,Phases=1,kv=0.12,kW=0.93304,pf=0.92,Vminpu=0.92,Vmaxpu=1.5,model=1,daily=RUR1_11,status=variable
new load.3010961990M1 bus1=RML1054973996.2.0,Phases=1,kv=0.127,kW=0.4646,pf=0.92,Vminpu=0.92,Vmaxpu=1.5,model=1,daily=RES2_20,status=variable
new load.3011037707M1 bus1=RML1055019482.1.2.0,Phases=2,kv=0.24,kW=0.63742,pf=0.92,Vminpu=0.92,Vmaxpu=1.5,model=1,daily=RUR2_21,status=variable
new load.3013417638M1 bus1=RML1060836102.1.0,Phases=1,kv=0.12,kW=0.43686,pf=0.92,Vminpu=0.92,Vmaxpu=1.5,model=1,daily=RUR1_16,status=variable
new load.IP1183692M1 bus1=BBT2799089.1.2.0,Phases=2,kv=0.22,kW=0.08064,pf=0.92,Vminpu=0.92,Vmaxpu=1.5,model=1,daily=IP,status=variable
new load.IP1183699M1 bus1=BBT2799110.2.3.0,Phases=2,kv=0.22,kW=0.08064,pf=0.92,Vminpu=0.92,Vmaxpu=1.5,model=1,daily=IP,status=variable
new load.IP1183706M1 bus1=BBT2799117.1.2.0,Phases=2,kv=0.22,kW=0.08064,pf=0.92,Vminpu=0.92,Vmaxpu=1.5,model=1,daily=IP,status=variable
new load.IP1183713M1 bus1=BBT2799124.1.3.0,Phases=2,kv=0.22,kW=0.08064,pf=0.92,Vminpu=0.92,Vmaxpu=1.5,model=1,daily=IP,status=variable
new load.IP1183720M1 bus1=BBT2799138.1.3.0,Phases=2,kv=0.22,kW=0.08064,pf=0.92,Vminpu=0.92,Vmaxpu=1.5,model=1,daily=IP,status=variable
new load.IP1183727M1 bus1=BBT2799131.1.2.0,Phases=2,kv=0.22,kW=0.08064,pf=0.92,Vminpu=0.92,Vmaxpu=1.5,model=1,daily=IP,status=variable
new load.IP1183734M1 bus1=BBT2799131.1.2.0,Phases=2,kv=0.22,kW=0.08064,pf=0.92,Vminpu=0.92,Vmaxpu=1.5,model=1,daily=IP,status=variable
new load.IP1183741M1 bus1=BBT2799152.1.2.0,Phases=2,kv=0.22,kW=0.1129,pf=0.92,Vminpu=0.92,Vmaxpu=1.5,model=1,daily=IP,status=variable
new load.IP1183748M1 bus1=BBT2799159.1.3.0,Phases=2,kv=0.22,kW=0.1129,pf=0.92,Vminpu=0.92,Vmaxpu=1.5,model=1,daily=IP,status=variable
new load.IP1183755M1 bus1=BBT2799180.2.3.0,Phases=2,kv=0.22,kW=0.1129,pf=0.92,Vminpu=0.92,Vmaxpu=1.5,model=1,daily=IP,status=variable
new load.IP1183762M1 bus1=BBT2799012.1.2.0,Phases=2,kv=0.22,kW=0.1129,pf=0.92,Vminpu=0.92,Vmaxpu=1.5,model=1,daily=IP,status=variable
new load.IP1183769M1 bus1=BBT2799012.1.2.0,Phases=2,kv=0.22,kW=0.1129,pf=0.92,Vminpu=0.92,Vmaxpu=1.5,model=1,daily=IP,status=variable
new load.IP1183776M1 bus1=BBT2799166.1.3.0,Phases=2,kv=0.22,kW=0.1129,pf=0.92,Vminpu=0.92,Vmaxpu=1.5,model=1,daily=IP,status=variable
new load.IP1183797M1 bus1=BBT2796247.1.2.0,Phases=2,kv=0.22,kW=0.08064,pf=0.92,Vminpu=0.92,Vmaxpu=1.5,model=1,daily=IP,status=variable
new load.IP1183804M1 bus1=BBT2796268.1.2.0,Phases=2,kv=0.22,kW=0.08064,pf=0.92,Vminpu=0.92,Vmaxpu=1.5,model=1,daily=IP,status=variable
new load.IP1188137M1 bus1=BBT2797395.2.3.0,Phases=2,kv=0.22,kW=0.08064,pf=0.92,Vminpu=0.92,Vmaxpu=1.5,model=1,daily=IP,status=variable
new load.3011019842M1 bus1=RML1060049310.2.0,Phases=1,kv=0.127,kW=0.0269,pf=0.92,Vminpu=0.92,Vmaxpu=1.5,model=1,daily=RES1_19,status=variable
new load.3011071121M1 bus1=RML1055066396.1.2.3.0,Phases=3,kv=0.22,kW=13.95964,pf=0.92,Vminpu=0.92,Vmaxpu=1.5,model=1,daily=RUR4_19,status=variable
new load.3011702680M1 bus1=RML1056528078.1.2.0,Phases=2,kv=0.24,kW=1.22792,pf=0.92,Vminpu=0.92,Vmaxpu=1.5,model=1,daily=RUR3_7,status=variable
new load.3011846683M1 bus1=RML1060704663.1.2.3.0,Phases=3,kv=0.22,kW=30.8143,pf=0.92,Vminpu=0.92,Vmaxpu=1.5,model=1,daily=RUR4_8,status=variable
new load.3011952204M1 bus1=RML1060059778.1.2.0,Phases=2,kv=0.24,kW=5.4231,pf=0.92,Vminpu=0.92,Vmaxpu=1.5,model=1,daily=RUR4_10,status=variable
new load.3012618983M1 bus1=RML1060468247.1.2.0,Phases=2,kv=0.24,kW=1.59698,pf=0.92,Vminpu=0.92,Vmaxpu=1.5,model=1,daily=RUR4_1,status=variable
new load.3013232155M1 bus1=RML1060674248.1.2.0,Phases=2,kv=0.24,kW=0.35882,pf=0.92,Vminpu=0.92,Vmaxpu=1.5,model=1,daily=RUR1_13,status=variable
new load.3013324561M1 bus1=RML1060812209.1.2.3.0,Phases=3,kv=0.22,kW=42.83352,pf=0.92,Vminpu=0.92,Vmaxpu=1.5,model=1,daily=RUR4_12,status=variable
new load.3013324566M1 bus1=RML1060801362.1.2.3.0,Phases=3,kv=0.22,kW=4.53164,pf=0.92,Vminpu=0.92,Vmaxpu=1.5,model=1,daily=RUR4_12,status=variable
new load.IP1146753M1 bus1=BBT2680761.1.2.0,Phases=2,kv=0.22,kW=0.08064,pf=0.92,Vminpu=0.92,Vmaxpu=1.5,model=1,daily=IP,status=variable
new load.IP1146760M1 bus1=BBT2680761.1.2.0,Phases=2,kv=0.22,kW=0.08064,pf=0.92,Vminpu=0.92,Vmaxpu=1.5,model=1,daily=IP,status=variable
new load.IP1146767M1 bus1=BBT2680768.2.3.0,Phases=2,kv=0.22,kW=0.08064,pf=0.92,Vminpu=0.92,Vmaxpu=1.5,model=1,daily=IP,status=variable
new load.IP1146774M1 bus1=BBT2680670.2.3.0,Phases=2,kv=0.22,kW=0.08064,pf=0.92,Vminpu=0.92,Vmaxpu=1.5,model=1,daily=IP,status=variable
new load.IP1146781M1 bus1=BBT2680775.1.3.0,Phases=2,kv=0.22,kW=0.08064,pf=0.92,Vminpu=0.92,Vmaxpu=1.5,model=1,daily=IP,status=variable
new load.IP1146788M1 bus1=BBT2680677.1.2.0,Phases=2,kv=0.22,kW=0.08064,pf=0.92,Vminpu=0.92,Vmaxpu=1.5,model=1,daily=IP,status=variable
new load.IP1146795M1 bus1=BBT2680691.1.2.0,Phases=2,kv=0.22,kW=0.08064,pf=0.92,Vminpu=0.92,Vmaxpu=1.5,model=1,daily=IP,status=variable
new load.IP1146802M1 bus1=BBT2680684.1.3.0,Phases=2,kv=0.22,kW=0.08064,pf=0.92,Vminpu=0.92,Vmaxpu=1.5,model=1,daily=IP,status=variable
new load.IP1146809M1 bus1=BBT2680684.1.3.0,Phases=2,kv=0.22,kW=0.08064,pf=0.92,Vminpu=0.92,Vmaxpu=1.5,model=1,daily=IP,status=variable
new load.IP1146816M1 bus1=BBT2680705.1.3.0,Phases=2,kv=0.22,kW=0.08064,pf=0.92,Vminpu=0.92,Vmaxpu=1.5,model=1,daily=IP,status=variable
new load.IP1146823M1 bus1=BBT2680719.1.3.0,Phases=2,kv=0.22,kW=0.08064,pf=0.92,Vminpu=0.92,Vmaxpu=1.5,model=1,daily=IP,status=variable
new load.IP1146830M1 bus1=BBT2680698.2.3.0,Phases=2,kv=0.22,kW=0.08064,pf=0.92,Vminpu=0.92,Vmaxpu=1.5,model=1,daily=IP,status=variable
new load.IP1146837M1 bus1=BBT2680698.2.3.0,Phases=2,kv=0.22,kW=0.08064,pf=0.92,Vminpu=0.92,Vmaxpu=1.5,model=1,daily=IP,status=variable
new load.IP1146844M1 bus1=BBT2680712.1.2.0,Phases=2,kv=0.22,kW=0.08064,pf=0.92,Vminpu=0.92,Vmaxpu=1.5,model=1,daily=IP,status=variable
new load.IP1146851M1 bus1=BBT2680726.1.3.0,Phases=2,kv=0.22,kW=0.08064,pf=0.92,Vminpu=0.92,Vmaxpu=1.5,model=1,daily=IP,status=variable
new load.IP1146858M1 bus1=BBT2680726.1.3.0,Phases=2,kv=0.22,kW=0.08064,pf=0.92,Vminpu=0.92,Vmaxpu=1.5,model=1,daily=IP,status=variable
new load.IP1146865M1 bus1=BBT2680740.1.2.0,Phases=2,kv=0.22,kW=0.08064,pf=0.92,Vminpu=0.92,Vmaxpu=1.5,model=1,daily=IP,status=variable
new load.IP1146872M1 bus1=BBT2680740.1.2.0,Phases=2,kv=0.22,kW=0.08064,pf=0.92,Vminpu=0.92,Vmaxpu=1.5,model=1,daily=IP,status=variable
new load.IP1146879M1 bus1=BBT2680747.2.3.0,Phases=2,kv=0.22,kW=0.08064,pf=0.92,Vminpu=0.92,Vmaxpu=1.5,model=1,daily=IP,status=variable
new load.IP1146886M1 bus1=BBT2680754.2.3.0,Phases=2,kv=0.22,kW=0.1129,pf=0.92,Vminpu=0.92,Vmaxpu=1.5,model=1,daily=IP,status=variable
new load.IP1146893M1 bus1=BBT2680754.2.3.0,Phases=2,kv=0.22,kW=0.1129,pf=0.92,Vminpu=0.92,Vmaxpu=1.5,model=1,daily=IP,status=variable
new load.3005755036M1 bus1=RML1050434867.1.2.0,Phases=2,kv=0.24,kW=0.6986,pf=0.92,Vminpu=0.92,Vmaxpu=1.5,model=1,daily=RUR1_10,status=variable
new load.3007422133M1 bus1=RML1054212543.1.2.3.0,Phases=3,kv=0.22,kW=12.20794,pf=0.92,Vminpu=0.92,Vmaxpu=1.5,model=1,daily=RUR4_18,status=variable
new load.3007467046M1 bus1=RML1054307687.1.0,Phases=1,kv=0.12,kW=0.99266,pf=0.92,Vminpu=0.92,Vmaxpu=1.5,model=1,daily=RUR1_25,status=variable
new load.3010220697M1 bus1=RML1054567079.1.2.0,Phases=2,kv=0.24,kW=0.62182,pf=0.92,Vminpu=0.92,Vmaxpu=1.5,model=1,daily=RUR3_1,status=variable
new load.3010507995M1 bus1=RML1054721954.1.0,Phases=1,kv=0.12,kW=1.9746,pf=0.92,Vminpu=0.92,Vmaxpu=1.5,model=1,daily=RUR4_5,status=variable
new load.3010994085M1 bus1=RML1060049319.2.0,Phases=1,kv=0.127,kW=0.14392,pf=0.92,Vminpu=0.92,Vmaxpu=1.5,model=1,daily=RES1_18,status=variable
new load.3012286355M1 bus1=RML1060697168.1.2.0,Phases=2,kv=0.24,kW=1.33738,pf=0.92,Vminpu=0.92,Vmaxpu=1.5,model=1,daily=RUR4_18,status=variable
new load.3013049398M1 bus1=RML1060822445.1.2.0,Phases=2,kv=0.24,kW=0.69468,pf=0.92,Vminpu=0.92,Vmaxpu=1.5,model=1,daily=RUR1_11,status=variable
new load.3013365513M1 bus1=RML1060755648.1.2.0,Phases=2,kv=0.22,kW=0.13558,pf=0.92,Vminpu=0.92,Vmaxpu=1.5,model=1,daily=RUR1_16,status=variable
new load.3013572644M1 bus1=RML1060983254.1.0,Phases=1,kv=0.127,kW=0.30842,pf=0.92,Vminpu=0.92,Vmaxpu=1.5,model=1,daily=RUR1_19,status=variable
new load.3007193680M1 bus1=RML1060108665.1.2.0,Phases=2,kv=0.24,kW=2.80536,pf=0.92,Vminpu=0.92,Vmaxpu=1.5,model=1,daily=RUR3_12,status=variable
new load.3007193681M1 bus1=RML1053797478.1.2.0,Phases=2,kv=0.24,kW=0.9087,pf=0.92,Vminpu=0.92,Vmaxpu=1.5,model=1,daily=RUR2_14,status=variable
new load.3007193682M1 bus1=RML1053797471.1.2.0,Phases=2,kv=0.24,kW=0.29094,pf=0.92,Vminpu=0.92,Vmaxpu=1.5,model=1,daily=RUR1_13,status=variable
new load.3007381759M1 bus1=RML1053899048.1.2.3.0,Phases=3,kv=0.22,kW=8.2902,pf=0.92,Vminpu=0.92,Vmaxpu=1.5,model=1,daily=RUR4_16,status=variable
new load.3007455097M1 bus1=RML1053965156.1.2.0,Phases=2,kv=0.22,kW=0.2112,pf=0.92,Vminpu=0.92,Vmaxpu=1.5,model=1,daily=RUR1_25,status=variable
new load.3011060575M1 bus1=RML1055042316.1.2.3.0,Phases=3,kv=0.22,kW=19.02068,pf=0.92,Vminpu=0.92,Vmaxpu=1.5,model=1,daily=RUR4_19,status=variable
new load.3011203641M1 bus1=RML1055636474.2.0,Phases=1,kv=0.12,kW=9.38344,pf=0.92,Vminpu=0.92,Vmaxpu=1.5,model=1,daily=RUR4_24,status=variable
new load.3011626637M1 bus1=RML1056697107.1.2.0,Phases=2,kv=0.24,kW=1.27974,pf=0.92,Vminpu=0.92,Vmaxpu=1.5,model=1,daily=RUR2_8,status=variable
new load.3012097767M1 bus1=RML1060253002.1.2.3.0,Phases=3,kv=0.22,kW=10.36442,pf=0.92,Vminpu=0.92,Vmaxpu=1.5,model=1,daily=RUR4_14,status=variable
new load.3013387004M1 bus1=RML1060766035.1.2.0,Phases=2,kv=0.24,kW=0.75882,pf=0.92,Vminpu=0.92,Vmaxpu=1.5,model=1,daily=RUR4_14,status=variable
new load.3013716688M1 bus1=RML1060896727.2.0,Phases=1,kv=0.12,kW=0.43836,pf=0.92,Vminpu=0.92,Vmaxpu=1.5,model=1,daily=RUR1_24,status=variable
new load.3004809999M1 bus1=RML1050434874.1.0,Phases=1,kv=0.12,kW=0.75668,pf=0.92,Vminpu=0.92,Vmaxpu=1.5,model=1,daily=RUR1_12,status=variable
new load.3006250213M1 bus1=RML1053325650.1.2.3.0,Phases=3,kv=0.22,kW=0.4808,pf=0.92,Vminpu=0.92,Vmaxpu=1.5,model=1,daily=IND1_21,status=variable
new load.3007144018M1 bus1=RML1060049648.1.2.3.0,Phases=3,kv=0.22,kW=3.3833,pf=0.92,Vminpu=0.92,Vmaxpu=1.5,model=1,daily=RES6_11,status=variable
new load.3007233549M1 bus1=RML1053823497.1.2.0,Phases=2,kv=0.24,kW=2.02272,pf=0.92,Vminpu=0.92,Vmaxpu=1.5,model=1,daily=RUR2_17,status=variable
new load.3007278234M1 bus1=RML1053841333.1.2.3.0,Phases=3,kv=0.22,kW=5.82016,pf=0.92,Vminpu=0.92,Vmaxpu=1.5,model=1,daily=RUR4_13,status=variable
new load.3007602268M1 bus1=RML1054107823.1.2.3.0,Phases=3,kv=0.22,kW=2.27622,pf=0.92,Vminpu=0.92,Vmaxpu=1.5,model=1,daily=RUR3_25,status=variable
new load.3011228866M1 bus1=RML1055670459.1.2.0,Phases=2,kv=0.24,kW=0.99686,pf=0.92,Vminpu=0.92,Vmaxpu=1.5,model=1,daily=RUR4_1,status=variable
new load.3011472459M1 bus1=RML1056183580.1.2.0,Phases=2,kv=0.24,kW=1.86204,pf=0.92,Vminpu=0.92,Vmaxpu=1.5,model=1,daily=RUR4_1,status=variable
new load.3011731672M1 bus1=RML1060049750.1.2.3.0,Phases=3,kv=0.22,kW=1.4839,pf=0.92,Vminpu=0.92,Vmaxpu=1.5,model=1,daily=RUR3_8,status=variable
new load.3003457739M1 bus1=RML1050434909.1.0,Phases=1,kv=0.12,kW=0.66676,pf=0.92,Vminpu=0.92,Vmaxpu=1.5,model=1,daily=RUR1_6,status=variable
new load.3007440669M1 bus1=RML1056492742.1.2.3.0,Phases=3,kv=0.22,kW=20.7352,pf=0.92,Vminpu=0.92,Vmaxpu=1.5,model=1,daily=RUR4_18,status=variable
new load.3010303341M1 bus1=RML1054598103.1.2.0,Phases=2,kv=0.24,kW=2.4982,pf=0.92,Vminpu=0.92,Vmaxpu=1.5,model=1,daily=RUR4_2,status=variable
new load.3010912147M1 bus1=RML1060636344.1.2.3.0,Phases=3,kv=0.22,kW=16.58044,pf=0.92,Vminpu=0.92,Vmaxpu=1.5,model=1,daily=RUR4_14,status=variable
new load.3012296109M1 bus1=RML1060313327.1.2.0,Phases=2,kv=0.24,kW=1.88358,pf=0.92,Vminpu=0.92,Vmaxpu=1.5,model=1,daily=RUR3_19,status=variable
new load.IP8231242M1 bus1=BBT131623608.2.3.0,Phases=2,kv=0.22,kW=0.1129,pf=0.92,Vminpu=0.92,Vmaxpu=1.5,model=1,daily=IP,status=variable
new load.IP8231243M1 bus1=BBT131623601.1.2.0,Phases=2,kv=0.22,kW=0.1129,pf=0.92,Vminpu=0.92,Vmaxpu=1.5,model=1,daily=IP,status=variable
